/*--------------------------------*- C++ -*----------------------------------*\
| =========                 |                                                 |
| \\      /  F ield         | OpenFOAM: The Open Source CFD Toolbox           |
|  \\    /   O peration     | Version:  1.7.1                                 |
|   \\  /    A nd           | Web:      www.OpenFOAM.com                      |
|    \\/     M anipulation  |                                                 |
\*---------------------------------------------------------------------------*/
FoamFile
{
    version     2.0;
    format      binary;
    class       dictionary;
    location    "constant";
    object      SprayCloudProperties;
}
// * * * * * * * * * * * * * * * * * * * * * * * * * * * * * * * * * * * * * //

active              true;

parcelTypeId        1;

coupled             true;

cellValueSourceCorrection    on;

constantProperties
{
    rhoMin          rhoMin [1 -3 0 0 0 ] 1.0e-15;
    TMin            TMin [ 0 0 0 1 0 ] 200;
    pMin            pMin [ 1 -1 2 0 0 ] 1000;
    minParticleMass minParticleMass [ 1 0 0 0 0 ] 1e-15;
    T0              T0 [ 0 0 0 1 0 ] 300;
    epsilon0        epsilon0 [ 0 0 0 0 0 ] 1;
    f0              f0 [ 0 0 0 0 0 ] 0.5;
    Pr              Pr [ 0 0 0 0 0 ] 0.7;
    Tvap            Tvap [ 0 0 0 1 0 ] 273;
    Tbp             Tvap [ 0 0 0 1 0 ] 373;
}

particleForces
{
    gravity           off;
    virtualMass       off;
    pressureGradient  off;
}

interpolationSchemes
{
    rho             cell;
    U               cellPointFace;
    mu              cell;
    T               cell;
    Cp              cell;
    p               cell;
}

DispersionModel     none;

DragModel           SphereDrag;

InjectionModel      ConeInjection;
//InjectionModel      none;

PatchInteractionModel StandardWallInteraction;

StandardWallInteractionCoeffs
{
    type            rebound;
}

HeatTransferModel RanzMarshall;

CompositionModel SinglePhaseMixture;

PhaseChangeModel LiquidEvaporation;

PostProcessingModel none;

radiation       off;

integrationSchemes
{
    U               Euler;
    T               Analytical;
}

RanzMarshallCoeffs
{
    // thermal shielding
    BirdCorrection  true;
}

SinglePhaseMixtureCoeffs
{
    phases
    (
        liquid
        {
            C7H16 1;
        }
    );
}

LiquidEvaporationCoeffs
{
    enthalpyTransfer enthalpyDifference;

    activeLiquids
    (
        C7H16
    );
}

ConeInjectionCoeffs
{
    SOI               0.0;
    massTotal         massTotal [1 0 0 0 0 0 0] 1.0e-5;
    parcelBasisType   mass;
    duration          1.25e-3;
    position          ( 0 0.0995 0 );
    direction         ( 0 -1 0 );
    parcelsPerSecond  100000000;
    volumeFlowRate    constant 1.0;
    Umag              constant 300.0;

    thetaInner        constant 0.0;
    thetaOuter        constant 10.0;

    parcelPDF
    {
        pdfType       uniform;

        uniformPDF
        {
            minValue  1.0e-4;
            maxValue  1.1e-4;
        }

    }

}

AtomizationModel       none;
BreakupModel           PilchErdman;
CollisionModel         none;

solveOscillationEq     false;

BlobsSheetAtomizationCoeffs
{
    B           1.0;
    angle       90.0;
}

LISACoeffs
{
    Cl                 0.5;
    cTau               12.0;
    Q                  1.0e-3;
    lisaExp            0.27;
    injectorDirection  ( 0 -1 0 );
}


ReitzDiwakarCoeffs
{
    Cbag          6.0;
    Cb            0.785;
    Cstrip        0.5;
    Cs            10.0;
}

TABCoeffs
{
    y0              0.0;
    yDot0           0.0;
    Cmu             10.0;
    Comega          8.0;
    WeCrit          12;
    SMDCalculationMethod  method2;
}

ETABCoeffs
{
    Cmu             10.0;
    Comega          8.0;
    WeCrit          12;
    k1              0.2;
    k2              0.2;
    WeTransition    100.0;
}

ReitzKHRTCoeffs
{
    B0              0.61;
    B1              40;
    Ctau            1;
    CRT             0.1;
    msLimit         0.03;
    WeberLimit      6;
}


PilchErdmanCoeffs
{
    B1 0.375;
    B2 0.236;
}

TrajectoryCoeffs
{
    coalescence on;
    cSpace      1.0;
    cTime       1.0;
}

ORourkeCoeffs
{
    coalescence    on;
}


// ************************************************************************* //
