/*--------------------------------*- C++ -*----------------------------------*\
| =========                 |                                                 |
| \\      /  F ield         | OpenFOAM: The Open Source CFD Toolbox           |
|  \\    /   O peration     | Version:  1.7.1                                 |
|   \\  /    A nd           | Web:      www.OpenFOAM.com                      |
|    \\/     M anipulation  |                                                 |
\*---------------------------------------------------------------------------*/
FoamFile
{
    version     2.0;
    format      binary;
    class       dictionary;
    location    "constant";
    object      SprayCloudProperties;
}
// * * * * * * * * * * * * * * * * * * * * * * * * * * * * * * * * * * * * * //

active              true;

parcelTypeId        1;

coupled             true;

cellValueSourceCorrection    on;

constantProperties
{
    rhoMin          rhoMin [1 -3 0 0 0 ] 1.0e-15;
    TMin            TMin [ 0 0 0 1 0 ] 200;
    pMin            pMin [ 1 -1 2 0 0 ] 1000;
    minParticleMass minParticleMass [ 1 0 0 0 0 ] 1e-15;
    T0              T0 [ 0 0 0 1 0 ] 300;
    epsilon0        epsilon0 [ 0 0 0 0 0 ] 1;
    f0              f0 [ 0 0 0 0 0 ] 0.5;
    Pr              Pr [ 0 0 0 0 0 ] 0.7;
    Tvap            Tvap [ 0 0 0 1 0 ] 273;
    Tbp             Tvap [ 0 0 0 1 0 ] 373;
}

particleForces
{
    gravity           off;
    virtualMass       off;
    pressureGradient  off;
}

interpolationSchemes
{
    rho             cell;
    U               cellPointFace;
    mu              cell;
    T               cell;
    Cp              cell;
    p               cell;
}

DispersionModel     none;

DragModel           SphereDrag;

//InjectionModel      CommonRailInjection;
//InjectionModel      MultiHoleInjection;
InjectionModel      UnitInjection;

PatchInteractionModel StandardWallInteraction;

StandardWallInteractionCoeffs
{
    type            rebound;
}

HeatTransferModel RanzMarshall;

CompositionModel SinglePhaseMixture;

PhaseChangeModel LiquidEvaporation;

PostProcessingModel none;

radiation       off;

integrationSchemes
{
    U               Euler;
    T               Analytical;
}

RanzMarshallCoeffs
{
    // thermal shielding
    BirdCorrection  true;
}

SinglePhaseMixtureCoeffs
{
    phases
    (
        liquid
        {
            C7H16 1;
        }
    );
}

LiquidEvaporationCoeffs
{
    enthalpyTransfer enthalpyDifference;

    activeLiquids
    (
        C7H16
    );
}

ConeInjectionCoeffs
{
    SOI               0.0;
    massTotal         massTotal [1 0 0 0 0 0 0] 1.0e-5;
    parcelBasisType   mass;
    duration          1.25e-3;
    position          ( 0 0.0995 0 );
    direction         ( 0 -1 0 );
    parcelsPerSecond  100000000;
    volumeFlowRate    constant 1.0;
    Umag              constant 300.0;

    thetaInner        constant 0.0;
    thetaOuter        constant 10.0;

    parcelPDF
    {
        pdfType       uniform;

        uniformPDF
        {
            minValue  1.0e-4;
            maxValue  1.1e-4;
        }

    }

}

UnitInjectionCoeffs
{
    SOI                    0.0;
    massTotal              massTotal [1 0 0 0 0 0 0] 6.0e-6;
    parcelBasisType        mass;
    injectionMethod        disc;
    outerNozzleDiameter    1.9e-4;
    innerNozzleDiameter    0;
    duration               1.25e-3;
    position               ( 0 0.0995 0 );
    direction              ( 0 -1 0 );
    parcelsPerSecond       100000000;
    volumeFlowRate         table
            (
                (0 0.1272)
                (4.16667e-05 6.1634)
                (8.33333e-05 9.4778)
                (0.000125 9.5806)
                (0.000166667 9.4184)
                (0.000208333 9.0926)
                (0.00025 8.7011)
                (0.000291667 8.2239)
                (0.000333333 8.0401)
                (0.000375 8.845)
                (0.000416667 8.9174)
                (0.000458333 8.8688)
                (0.0005 8.8882)
                (0.000541667 8.6923)
                (0.000583333 8.0014)
                (0.000625 7.2582)
                (0.000666667 7.2757)
                (0.000708333 6.968)
                (0.00075 6.7608)
                (0.000791667 6.6502)
                (0.000833333 6.7695)
                (0.000875 5.5774)
                (0.000916667 4.8649)
                (0.000958333 5.0805)
                (0.001 4.9547)
                (0.00104167 4.5613)
                (0.00108333 4.4536)
                (0.001125 5.2651)
                (0.00116667 5.256)
                (0.00120833 5.1737)
                (0.00125 3.9213)
            );

    Cd                constant 0.85;

    thetaInner        constant 0.0;
    thetaOuter        constant 10.0;

    parcelPDF
    {
        pdfType       uniform;

        uniformPDF
        {
            minValue  1.0e-4;
            maxValue  1.1e-4;
        }

    }

}


CommonRailInjectionCoeffs
{
    SOI                  0.0;
    massTotal            massTotal [1 0 0 0 0 0 0] 6.0e-6;
    parcelBasisType      mass;
    injectionMethod      disc;
    outerNozzleDiameter  1.9e-4;
    innerNozzleDiameter  0.0;
    duration             1.25e-3;
    position             ( 0 0.0995 0 );
    direction            ( 0 -1 0 );
    parcelsPerSecond     100000000;
    volumeFlowRate       constant 1.0;
    Pinj                 constant 50.0e+6;

    thetaInner           constant 0.0;
    thetaOuter           constant 10.0;

    parcelPDF
    {
        pdfType       uniform;

        uniformPDF
        {
            minValue  1.0e-4;
            maxValue  1.1e-4;
        }

    }

}

MultiHoleInjectionCoeffs
{
    SOI                    0.0;
    massTotal              massTotal [1 0 0 0 0 0 0] 6.0e-6;
    parcelBasisType        mass;
    nozzleDiameter         1.9e-4;
    duration               1.25e-3;

    centerPosition         ( 0 0.0995 0 );
    nozzleTipDiameter      0.01;
    xyAngle                -90.0;
    zAngle                 90.0;
    nHoles                 5;
    umbrellaAngle          90.0;
    angleSpacing
    (
       0.0
       120.0
       120.0
       100.0
       140.0
    );
    parcelsPerSecond       100000000;
    volumeFlowRate         constant 1.0;
    Cd                     constant 0.85;

    thetaInner             constant 0.0;
    thetaOuter             constant 10.0;

    parcelPDF
    {
        pdfType       uniform;

	uniformPDF
	{
            minValue  1.0e-4;
            maxValue  1.1e-4;
        }

    }

}

AtomizationModel       none;
BreakupModel           PilchErdman;
CollisionModel         none;

solveOscillationEq     false;

BlobsSheetAtomizationCoeffs
{
    B           1.0;
    angle       90.0;
}

LISACoeffs
{
    Cl                 0.5;
    cTau               12.0;
    Q                  1.0e-3;
    lisaExp            0.27;
    injectorDirection  ( 0 -1 0 );
}


ReitzDiwakarCoeffs
{
    Cbag          6.0;
    Cb            0.785;
    Cstrip        0.5;
    Cs            10.0;
}

TABCoeffs
{
    y0              0.0;
    yDot0           0.0;
    Cmu             10.0;
    Comega          8.0;
    WeCrit          12;
    SMDCalculationMethod  method2;
}

ETABCoeffs
{
    Cmu             10.0;
    Comega          8.0;
    WeCrit          12;
    k1              0.2;
    k2              0.2;
    WeTransition    100.0;
}

ReitzKHRTCoeffs
{
    B0              0.61;
    B1              40;
    Ctau            1;
    CRT             0.1;
    msLimit         0.03;
    WeberLimit      6;
}


PilchErdmanCoeffs
{
    B1 0.375;
    B2 0.236;
}

TrajectoryCoeffs
{
    coalescence on;
    cSpace      1.0;
    cTime       1.0;
}

ORourkeCoeffs
{
    coalescence    on;
}


// ************************************************************************* //
